test/resources/V1_13/nodebreaker-busproperties.xml
<?xml version="1.0" encoding="UTF-8"?>
<iidm:network xmlns:iidm="http://www.powsybl.org/schema/iidm/1_13" id="fictitious" caseDate="2017-06-25T17:43:00+01:00" forecastDistance="0" sourceFormat="test" minimumValidationLevel="STEADY_STATE_HYPOTHESIS">
    <iidm:substation id="A" country="FR">
        <iidm:voltageLevel id="C" nominalV="225" lowVoltageLimit="0" topologyKind="NODE_BREAKER">
            <iidm:nodeBreakerTopology>
                <iidm:busbarSection id="D" name="E" node="0"/>
                <iidm:switch id="F" name="G" fictitious="true" kind="DISCONNECTOR" retained="false" open="false" node1="0" node2="1"/>
                <iidm:switch id="H" name="I" fictitious="true" kind="DISCONNECTOR" retained="false" open="false" node1="0" node2="3"/>
                <iidm:switch id="J" name="K" fictitious="true" kind="BREAKER" retained="true" open="false" node1="1" node2="2"/>
                <iidm:switch id="L" name="M" fictitious="true" kind="BREAKER" retained="true" open="false" node1="3" node2="4"/>
                <iidm:bus v="234.40912" angle="0" nodes="0,1,2,3,4">
                    <iidm:property name="key_test1" value="value_test1"/>
                    <iidm:property name="key_test2" value="value_test2"/>
                </iidm:bus>
            </iidm:nodeBreakerTopology>
        </iidm:voltageLevel>
        <iidm:voltageLevel id="N" nominalV="225" lowVoltageLimit="220" highVoltageLimit="245.00002000000001" topologyKind="NODE_BREAKER">
            <iidm:nodeBreakerTopology>
                <iidm:busbarSection id="O" name="E" node="0"/>
                <iidm:busbarSection id="P" name="Q" node="1"/>
                <iidm:switch id="R" name="S" kind="DISCONNECTOR" retained="false" open="true" node1="0" node2="19"/>
                <iidm:switch id="T" name="U" kind="DISCONNECTOR" retained="false" open="true" node1="0" node2="17"/>
                <iidm:switch id="V" name="W" kind="DISCONNECTOR" retained="false" open="true" node1="0" node2="21"/>
                <iidm:switch id="X" name="Y" kind="DISCONNECTOR" retained="false" open="true" node1="0" node2="11"/>
                <iidm:switch id="Z" name="AA" kind="DISCONNECTOR" retained="false" open="true" node1="0" node2="13"/>
                <iidm:switch id="AB" name="AC" kind="DISCONNECTOR" retained="false" open="false" node1="0" node2="15"/>
                <iidm:switch id="AD" name="AE" kind="DISCONNECTOR" retained="false" open="true" node1="0" node2="8"/>
                <iidm:switch id="AF" name="AG" fictitious="true" kind="DISCONNECTOR" retained="false" open="true" node1="0" node2="2"/>
                <iidm:switch id="AH" name="AI" kind="DISCONNECTOR" retained="false" open="false" node1="7" node2="0"/>
                <iidm:switch id="AJ" name="AK" kind="DISCONNECTOR" retained="false" open="false" node1="1" node2="6"/>
                <iidm:switch id="AL" name="AM" kind="DISCONNECTOR" retained="false" open="false" node1="1" node2="19"/>
                <iidm:switch id="AN" name="AO" kind="DISCONNECTOR" retained="false" open="false" node1="1" node2="17"/>
                <iidm:switch id="AP" name="AQ" kind="DISCONNECTOR" retained="false" open="false" node1="1" node2="21"/>
                <iidm:switch id="AR" name="AS" kind="DISCONNECTOR" retained="false" open="true" node1="1" node2="11"/>
                <iidm:switch id="AT" name="AU" kind="DISCONNECTOR" retained="false" open="true" node1="1" node2="13"/>
                <iidm:switch id="AV" name="AW" kind="DISCONNECTOR" retained="false" open="true" node1="1" node2="15"/>
                <iidm:switch id="AX" name="AY" kind="DISCONNECTOR" retained="false" open="false" node1="1" node2="8"/>
                <iidm:switch id="AZ" name="BA" fictitious="true" kind="DISCONNECTOR" retained="false" open="true" node1="1" node2="2"/>
                <iidm:switch id="BB" name="BC" fictitious="true" kind="BREAKER" retained="true" open="true" node1="2" node2="3"/>
                <iidm:switch id="BD" name="BE" kind="BREAKER" retained="true" open="false" node1="3" node2="4"/>
                <iidm:switch id="BF" name="BG" kind="DISCONNECTOR" retained="false" open="false" node1="3" node2="5"/>
                <iidm:switch id="BH" name="BI" kind="DISCONNECTOR" retained="false" open="true" node1="9" node2="3"/>
                <iidm:switch id="BJ" name="BK" kind="BREAKER" retained="true" open="false" node1="6" node2="7"/>
                <iidm:switch id="BL" name="BM" kind="BREAKER" retained="true" open="false" node1="8" node2="9"/>
                <iidm:switch id="BN" name="BO" kind="DISCONNECTOR" retained="false" open="false" node1="9" node2="10"/>
                <iidm:switch id="BP" name="BQ" kind="BREAKER" retained="true" open="true" node1="11" node2="12"/>
                <iidm:switch id="BR" name="BS" kind="BREAKER" retained="true" open="true" node1="13" node2="14"/>
                <iidm:switch id="BT" name="BU" kind="BREAKER" retained="true" open="false" node1="15" node2="16"/>
                <iidm:switch id="BV" name="BW" kind="BREAKER" retained="true" open="false" node1="17" node2="18"/>
                <iidm:switch id="BX" name="BY" kind="BREAKER" retained="true" open="false" node1="19" node2="20"/>
                <iidm:switch id="BZ" name="CA" kind="BREAKER" retained="true" open="false" node1="21" node2="22"/>
                <iidm:bus v="236.44736" angle="15.250391" nodes="0,1,6,7,8,9,10,15,16,17,18,19,20,21,22"/>
            </iidm:nodeBreakerTopology>
            <iidm:generator id="CB" energySource="HYDRO" minP="0" maxP="70" voltageRegulatorOn="false" targetP="0" targetV="0" targetQ="0" node="12">
                <iidm:reactiveCapabilityCurve>
                    <iidm:point p="0" minQ="-59.299999999999997" maxQ="60"/>
                    <iidm:point p="70" minQ="-54.549999999999997" maxQ="46.25"/>
                </iidm:reactiveCapabilityCurve>
            </iidm:generator>
            <iidm:generator id="CC" energySource="HYDRO" minP="0" maxP="80" voltageRegulatorOn="false" targetP="0" targetV="0" targetQ="0" node="14">
                <iidm:reactiveCapabilityCurve>
                    <iidm:point p="0" minQ="-56.799999999999997" maxQ="57.399999999999999"/>
                    <iidm:point p="80" minQ="-53.514000000000003" maxQ="36.399999999999999"/>
                </iidm:reactiveCapabilityCurve>
            </iidm:generator>
            <iidm:generator id="CD" energySource="HYDRO" minP="0" maxP="35" voltageRegulatorOn="true" targetP="21.789588999999999" targetV="236.44736" targetQ="-20.701546" node="16" p="-21.789588999999999" q="20.693394000000001">
                <iidm:reactiveCapabilityCurve>
                    <iidm:point p="0" minQ="-20.600000000000001" maxQ="18.100000000000001"/>
                    <iidm:point p="35" minQ="-21.725000000000001" maxQ="6.3500003999999999"/>
                </iidm:reactiveCapabilityCurve>
            </iidm:generator>
            <iidm:load id="CE" loadType="UNDEFINED" p0="-72.186890000000005" q0="50.168945000000001" node="4" p="-72.186890000000005" q="50.168945000000001"/>
            <iidm:load id="CF" loadType="UNDEFINED" p0="8.4558540000000004" q0="-23.695924999999999" node="18" p="8.4558540000000004" q="-23.695924999999999"/>
            <iidm:load id="CG" loadType="UNDEFINED" p0="90.399109999999993" q0="-51.968690000000002" node="20" p="90.399109999999993" q="-51.968690000000002"/>
            <iidm:load id="CH" loadType="UNDEFINED" p0="-5.1022489999999996" q0="4.9081216000000003" node="22" p="-5.1022489999999996" q="4.9081216000000003"/>
        </iidm:voltageLevel>
        <iidm:twoWindingsTransformer id="CI" r="2" x="14.744999999999999" g="0" b="3.1999999999999999e-05" ratedU1="225" ratedU2="225" ratedS="1" node1="2" voltageLevelId1="C" node2="10" voltageLevelId2="N" selectedOperationalLimitsGroupId1="DEFAULT" selectedOperationalLimitsGroupId2="DEFAULT">
            <iidm:phaseTapChanger lowTapPosition="0" tapPosition="22" regulationMode="CURRENT_LIMITER" regulationValue="930.66669999999999" regulating="false">
                <iidm:terminalRef id="CI" side="ONE"/>
                <iidm:step r="39.784730000000003" x="39.784725000000002" g="0" b="0" rho="1" alpha="-42.799999999999997"/>
                <iidm:step r="31.720244999999998" x="31.720241999999999" g="0" b="0" rho="1" alpha="-40.18"/>
                <iidm:step r="23.655736999999998" x="23.655735" g="0" b="0" rho="1" alpha="-37.539999999999999"/>
                <iidm:step r="16.263271" x="16.263268" g="0" b="0" rho="1" alpha="-34.899999999999999"/>
                <iidm:step r="9.5428470000000001" x="9.5428420000000003" g="0" b="0" rho="1" alpha="-32.259999999999998"/>
                <iidm:step r="3.4944772999999998" x="3.4944772999999998" g="0" b="0" rho="1" alpha="-29.600000000000001"/>
                <iidm:step r="-1.8818557" x="-1.8818527" g="0" b="0" rho="1" alpha="-26.940000000000001"/>
                <iidm:step r="-7.2581949999999997" x="-7.2581954" g="0" b="0" rho="1" alpha="-24.260000000000002"/>
                <iidm:step r="-11.962484999999999" x="-11.962484" g="0" b="0" rho="1" alpha="-21.579999999999998"/>
                <iidm:step r="-15.994745" x="-15.994745" g="0" b="0" rho="1" alpha="-18.899999999999999"/>
                <iidm:step r="-19.354952000000001" x="-19.354952000000001" g="0" b="0" rho="1" alpha="-16.219999999999999"/>
                <iidm:step r="-22.043126999999998" x="-22.043129" g="0" b="0" rho="1" alpha="-13.52"/>
                <iidm:step r="-24.731290000000001" x="-24.731286999999998" g="0" b="0" rho="1" alpha="-10.82"/>
                <iidm:step r="-26.747416999999999" x="-26.747416999999999" g="0" b="0" rho="1" alpha="-8.1199999999999992"/>
                <iidm:step r="-28.091502999999999" x="-28.091502999999999" g="0" b="0" rho="1" alpha="-5.4199999999999999"/>
                <iidm:step r="-28.763538" x="-28.763535999999998" g="0" b="0" rho="1" alpha="-2.7000000000000002"/>
                <iidm:step r="-28.763538" x="-28.763535999999998" g="0" b="0" rho="1" alpha="0"/>
                <iidm:step r="-28.763538" x="-28.763535999999998" g="0" b="0" rho="1" alpha="2.7000000000000002"/>
                <iidm:step r="-28.091502999999999" x="-28.091502999999999" g="0" b="0" rho="1" alpha="5.4199999999999999"/>
                <iidm:step r="-26.747416999999999" x="-26.747416999999999" g="0" b="0" rho="1" alpha="8.1199999999999992"/>
                <iidm:step r="-24.731290000000001" x="-24.731286999999998" g="0" b="0" rho="1" alpha="10.82"/>
                <iidm:step r="-22.043126999999998" x="-22.043129" g="0" b="0" rho="1" alpha="13.52"/>
                <iidm:step r="-19.354952000000001" x="-19.354952000000001" g="0" b="0" rho="1" alpha="16.219999999999999"/>
                <iidm:step r="-15.994745" x="-15.994745" g="0" b="0" rho="1" alpha="18.899999999999999"/>
                <iidm:step r="-11.962484999999999" x="-11.962484" g="0" b="0" rho="1" alpha="21.579999999999998"/>
                <iidm:step r="-7.2581949999999997" x="-7.2581954" g="0" b="0" rho="1" alpha="24.260000000000002"/>
                <iidm:step r="-1.8818557" x="-1.8818527" g="0" b="0" rho="1" alpha="26.940000000000001"/>
                <iidm:step r="3.4944772999999998" x="3.4944772999999998" g="0" b="0" rho="1" alpha="29.600000000000001"/>
                <iidm:step r="9.5428470000000001" x="9.5428420000000003" g="0" b="0" rho="1" alpha="32.259999999999998"/>
                <iidm:step r="16.263271" x="16.263268" g="0" b="0" rho="1" alpha="34.899999999999999"/>
                <iidm:step r="23.655736999999998" x="23.655735" g="0" b="0" rho="1" alpha="37.539999999999999"/>
                <iidm:step r="31.720244999999998" x="31.720241999999999" g="0" b="0" rho="1" alpha="40.18"/>
                <iidm:step r="39.784730000000003" x="39.784725000000002" g="0" b="0" rho="1" alpha="42.799999999999997"/>
            </iidm:phaseTapChanger>
            <iidm:operationalLimitsGroup1 id="DEFAULT">
                <iidm:currentLimits permanentLimit="931"/>
            </iidm:operationalLimitsGroup1>
            <iidm:operationalLimitsGroup2 id="DEFAULT">
                <iidm:currentLimits permanentLimit="931"/>
            </iidm:operationalLimitsGroup2>
        </iidm:twoWindingsTransformer>
    </iidm:substation>
    <iidm:line id="CJ" r="0.0099999990000000007" x="0.10000002400000001" g1="0" b1="0" g2="0" b2="0" node1="4" voltageLevelId1="C" node2="5" voltageLevelId2="N" selectedOperationalLimitsGroupId1="DEFAULT" selectedOperationalLimitsGroupId2="DEFAULT">
        <iidm:operationalLimitsGroup1 id="DEFAULT">
            <iidm:currentLimits permanentLimit="931"/>
        </iidm:operationalLimitsGroup1>
        <iidm:operationalLimitsGroup2 id="DEFAULT">
            <iidm:currentLimits permanentLimit="931">
                <iidm:temporaryLimit name="IST" value="1640" fictitious="true"/>
                <iidm:temporaryLimit name="IT1" acceptableDuration="60"/>
            </iidm:currentLimits>
        </iidm:operationalLimitsGroup2>
    </iidm:line>
</iidm:network>
